$ Spice netlist generated by v2lvs
$ v2011.2_34.26    Wed Jul 6 05:26:24 PDT 2011
.INCLUDE "lvs_netlist/SP013W_V1p0.sp" 
.INCLUDE "lvs_netlist/smic13g.cdl" 

.SUBCKT display_DW01_inc_0 SUM[19] SUM[18] SUM[17] SUM[16] SUM[15] SUM[14] 
+ SUM[13] SUM[12] SUM[11] SUM[10] SUM[9] SUM[8] SUM[7] SUM[6] SUM[5] SUM[4] 
+ SUM[3] SUM[2] SUM[1] SUM[0] A[19] A[18] A[17] A[16] A[15] A[14] A[13] A[12] 
+ A[11] A[10] A[9] A[8] A[7] A[6] A[5] A[4] A[3] A[2] A[1] A[0] VSS VDD 
XU1_1_16 ADDHXL $PINS VDD=VDD S=SUM[16] VSS=VSS B=carry[16] A=A[16] 
+ CO=carry[17] 
XU1_1_11 ADDHXL $PINS VDD=VDD S=SUM[11] VSS=VSS B=carry[11] A=A[11] 
+ CO=carry[12] 
XU1_1_6 ADDHXL $PINS VDD=VDD S=SUM[6] VSS=VSS B=carry[6] A=A[6] CO=carry[7] 
XU1_1_18 ADDHXL $PINS VDD=VDD S=SUM[18] VSS=VSS B=carry[18] A=A[18] 
+ CO=carry[19] 
XU1_1_14 ADDHXL $PINS VDD=VDD S=SUM[14] VSS=VSS B=carry[14] A=A[14] 
+ CO=carry[15] 
XU1_1_4 ADDHXL $PINS VDD=VDD S=SUM[4] VSS=VSS B=carry[4] A=A[4] CO=carry[5] 
XU1_1_3 ADDHXL $PINS VDD=VDD S=SUM[3] VSS=VSS B=carry[3] A=A[3] CO=carry[4] 
XU1_1_17 ADDHXL $PINS VDD=VDD S=SUM[17] VSS=VSS B=carry[17] A=A[17] 
+ CO=carry[18] 
XU1_1_9 ADDHXL $PINS VDD=VDD S=SUM[9] VSS=VSS B=carry[9] A=A[9] CO=carry[10] 
XU1_1_7 ADDHXL $PINS VDD=VDD S=SUM[7] VSS=VSS B=carry[7] A=A[7] CO=carry[8] 
XU1_1_8 ADDHXL $PINS VDD=VDD S=SUM[8] VSS=VSS B=carry[8] A=A[8] CO=carry[9] 
XU1_1_5 ADDHXL $PINS VDD=VDD S=SUM[5] VSS=VSS B=carry[5] A=A[5] CO=carry[6] 
XU2 XOR2X1 $PINS Y=SUM[19] VSS=VSS A=carry[19] B=A[19] VDD=VDD 
XU1 INVX1 $PINS Y=SUM[0] VSS=VSS A=A[0] VDD=VDD 
XU1_1_1 ADDHXL $PINS VDD=VDD S=SUM[1] VSS=VSS B=A[0] A=A[1] CO=carry[2] 
XU1_1_13 ADDHXL $PINS VDD=VDD S=SUM[13] VSS=VSS B=carry[13] A=A[13] 
+ CO=carry[14] 
XU1_1_10 ADDHXL $PINS VDD=VDD S=SUM[10] VSS=VSS B=carry[10] A=A[10] 
+ CO=carry[11] 
XU1_1_12 ADDHXL $PINS VDD=VDD S=SUM[12] VSS=VSS B=carry[12] A=A[12] 
+ CO=carry[13] 
XU1_1_15 ADDHXL $PINS VDD=VDD S=SUM[15] VSS=VSS B=carry[15] A=A[15] 
+ CO=carry[16] 
XU1_1_2 ADDHXL $PINS VDD=VDD S=SUM[2] VSS=VSS B=carry[2] A=A[2] CO=carry[3] 
.ENDS

.SUBCKT display data_out[6] data_out[5] data_out[4] data_out[3] data_out[2] 
+ data_out[1] data_out[0] clk rst VSS VDD IN0 IN1 IN2 sel[1] sel[0] data_in[7] 
+ data_in[6] data_in[5] data_in[4] data_in[3] data_in[2] data_in[1] data_in[0] 
+ clk_cts_1 
Xadd_29 display_DW01_inc_0 $PINS SUM[19]=N24 SUM[18]=N23 SUM[17]=N22 
+ SUM[16]=N21 SUM[15]=N20 SUM[14]=N19 SUM[13]=N18 SUM[12]=N17 SUM[11]=N16 
+ SUM[10]=N15 SUM[9]=N14 SUM[8]=N13 SUM[7]=N12 SUM[6]=N11 SUM[5]=N10 SUM[4]=N9 
+ SUM[3]=N8 SUM[2]=N7 SUM[1]=N6 SUM[0]=N5 A[19]=cnt[19] A[18]=cnt[18] 
+ A[17]=cnt[17] A[16]=cnt[16] A[15]=cnt[15] A[14]=cnt[14] A[13]=cnt[13] 
+ A[12]=cnt[12] A[11]=cnt[11] A[10]=cnt[10] A[9]=cnt[9] A[8]=cnt[8] A[7]=cnt[7] 
+ A[6]=cnt[6] A[5]=cnt[5] A[4]=cnt[4] A[3]=cnt[3] A[2]=cnt[2] A[1]=cnt[1] 
+ A[0]=cnt[0] VSS=VSS VDD=VDD 
XU95 AND3XL $PINS Y=n9 VSS=VSS A=cnt[8] C=cnt[9] B=cnt[7] VDD=VDD 
XU13 CLKBUFX2 $PINS Y=n75 VSS=VSS A=data_in[3] VDD=VDD 
XU37 CLKBUFX2 $PINS Y=n79 VSS=VSS A=data_in[5] VDD=VDD 
XU2 CLKBUFX2 $PINS Y=n63 VSS=VSS A=data_in[4] VDD=VDD 
XU43 CLKBUFX2 $PINS Y=n81 VSS=VSS A=data_in[7] VDD=VDD 
XU8 CLKBUFX2 $PINS Y=n72 VSS=VSS A=data_in[0] VDD=VDD 
XU38 INVX1 $PINS Y=n80 VSS=VSS A=n79 VDD=VDD 
XU17 INVX1 $PINS Y=n76 VSS=VSS A=n75 VDD=VDD 
XU7 INVX1 $PINS Y=n71 VSS=VSS A=n63 VDD=VDD 
XU24 OAI221XL $PINS A0=n80 A1=n77 C0=n41 Y=n40 B1=n85 B0=n81 VSS=VSS VDD=VDD 
XU29 OAI22XL $PINS A1=n82 A0=n63 Y=n55 B1=n41 B0=n85 VSS=VSS VDD=VDD 
XU69 NOR2X1 $PINS Y=n22 VSS=VSS A=IN1 B=n63 VDD=VDD 
XU90 OR4X1 $PINS Y=n14 VSS=VSS A=cnt[5] B=cnt[12] C=n18 D=n17 VDD=VDD 
XU77 OA22X1 $PINS A1=n63 A0=n80 Y=n34 B1=n82 B0=n36 VSS=VSS VDD=VDD 
XU68 AOI22X1 $PINS A0=IN1 A1=n27 Y=n28 B0=IN0 B1=n23 VSS=VSS VDD=VDD 
XU78 OA22X1 $PINS A1=n72 A0=n73 Y=n33 B1=n76 B0=n37 VSS=VSS VDD=VDD 
XU82 AOI33X1 $PINS VSS=VSS VDD=VDD A2=n31 A1=IN0 A0=n63 Y=n19 B1=IN1 B0=n72 
+ B2=n32 
XU1 INVX1 $PINS Y=n15 VSS=VSS A=n14 VDD=VDD 
XU51 AND2XL $PINS Y=N45 VSS=VSS B=n14 A=N22 VDD=VDD 
XU57 AND2XL $PINS Y=N42 VSS=VSS B=n14 A=N19 VDD=VDD 
XU59 AND2XL $PINS Y=N39 VSS=VSS B=n14 A=N16 VDD=VDD 
XU58 AND2XL $PINS Y=N37 VSS=VSS B=n14 A=N14 VDD=VDD 
XU62 AND2XL $PINS Y=N32 VSS=VSS B=n14 A=N9 VDD=VDD 
XU61 AND2XL $PINS Y=N30 VSS=VSS B=n14 A=N7 VDD=VDD 
XU64 AND2XL $PINS Y=N31 VSS=VSS B=n14 A=N8 VDD=VDD 
XU63 AND2XL $PINS Y=N29 VSS=VSS B=n14 A=N6 VDD=VDD 
XU66 AND2XL $PINS Y=N36 VSS=VSS B=n14 A=N13 VDD=VDD 
XU65 AND2XL $PINS Y=N35 VSS=VSS B=n14 A=N12 VDD=VDD 
XU67 AND2XL $PINS Y=N34 VSS=VSS B=n14 A=N11 VDD=VDD 
XU98 AND2XL $PINS Y=N28 VSS=VSS B=n14 A=N5 VDD=VDD 
XU86 OAI31XL $PINS A2=n66 A1=n67 A0=n68 Y=n65 B0=n64 VSS=VSS VDD=VDD 
XU100 CLKBUFX2 $PINS Y=n85 VSS=VSS A=data_in[6] VDD=VDD 
XU56 CLKBUFX2 $PINS Y=n84 VSS=VSS A=data_in[1] VDD=VDD 
XU48 CLKBUFX2 $PINS Y=n83 VSS=VSS A=data_in[2] VDD=VDD 
XU45 INVX1 $PINS Y=n82 VSS=VSS A=n81 VDD=VDD 
XU21 INVX1 $PINS Y=n77 VSS=VSS A=n85 VDD=VDD 
XU11 INVX1 $PINS Y=n74 VSS=VSS A=n83 VDD=VDD 
XU10 INVX1 $PINS Y=n73 VSS=VSS A=n84 VDD=VDD 
XU4 OAI221X2 $PINS A0=IN0 A1=n47 C0=n35 Y=data_out[1] B1=n48 B0=IN1 VSS=VSS 
+ VDD=VDD 
XU5 OAI221X2 $PINS A0=IN0 A1=n43 C0=n28 Y=data_out[2] B1=n44 B0=IN1 VSS=VSS 
+ VDD=VDD 
XU3 OAI221X2 $PINS A0=IN0 A1=n53 C0=n35 Y=data_out[0] B1=n54 B0=IN1 VSS=VSS 
+ VDD=VDD 
XU18 OAI211X2 $PINS A1=n70 A0=n38 C0=n39 Y=data_out[3] B0=n19 VSS=VSS VDD=VDD 
XU27 NAND3X1 $PINS Y=data_out[5] VSS=VSS A=n28 B=n69 C=n29 VDD=VDD 
XU28 AOI22X1 $PINS A0=n80 A1=n22 Y=n29 B0=n26 B1=n73 VSS=VSS VDD=VDD 
XU30 NAND4X1 $PINS Y=data_out[6] VSS=VSS C=n69 A=n19 B=n20 D=n21 VDD=VDD 
XU31 NAND2X1 $PINS Y=n20 VSS=VSS B=n27 A=n26 VDD=VDD 
XU32 AOI211X1 $PINS A1=n23 A0=n22 C0=n25 Y=n21 B0=n24 VSS=VSS VDD=VDD 
XU33 AOI22X1 $PINS A0=n77 A1=n22 Y=n35 B0=n74 B1=n26 VSS=VSS VDD=VDD 
XU34 NOR2X1 $PINS Y=n27 VSS=VSS A=n74 B=n75 VDD=VDD 
XU35 NAND2X1 $PINS Y=n49 VSS=VSS B=n50 A=n85 VDD=VDD 
XU36 XOR2X1 $PINS Y=n50 VSS=VSS A=n79 B=n63 VDD=VDD 
XU39 NOR2X1 $PINS Y=n36 VSS=VSS A=n79 B=n85 VDD=VDD 
XU40 NOR2X1 $PINS Y=n37 VSS=VSS A=n84 B=n83 VDD=VDD 
XU41 NOR2X1 $PINS Y=n23 VSS=VSS A=n77 B=n81 VDD=VDD 
XU42 NOR2X1 $PINS Y=n31 VSS=VSS A=n77 B=n79 VDD=VDD 
XU44 NAND2X1 $PINS Y=n45 VSS=VSS B=n79 A=n71 VDD=VDD 
XU46 AOI2BB1X1 $PINS A1N=n85 Y=n56 A0N=n82 B0=n80 VSS=VSS VDD=VDD 
XU47 AOI2BB1X1 $PINS A1N=n83 Y=n58 A0N=n76 B0=n73 VSS=VSS VDD=VDD 
XU49 NOR2BX1 $PINS Y=N44 VSS=VSS AN=N21 B=n15 VDD=VDD 
XU50 NOR2BX1 $PINS Y=N46 VSS=VSS AN=N23 B=n15 VDD=VDD 
XU52 NOR2BX1 $PINS Y=N41 VSS=VSS AN=N18 B=n15 VDD=VDD 
XU53 NOR2BX1 $PINS Y=N38 VSS=VSS AN=N15 B=n15 VDD=VDD 
XU54 NOR2BX1 $PINS Y=N40 VSS=VSS AN=N17 B=n15 VDD=VDD 
XU55 NOR2BX1 $PINS Y=N43 VSS=VSS AN=N20 B=n15 VDD=VDD 
XU60 NOR2BX1 $PINS Y=N33 VSS=VSS AN=N10 B=n15 VDD=VDD 
XU70 NOR3XL $PINS Y=n25 VSS=VSS A=IN1 B=n85 C=n80 VDD=VDD 
XU71 AOI211X1 $PINS A1=n63 A0=n23 C0=n56 Y=n54 B0=n55 VSS=VSS VDD=VDD 
XU72 AOI211X1 $PINS A1=n72 A0=n27 C0=n58 Y=n53 B0=n57 VSS=VSS VDD=VDD 
XU73 AOI2BB2X1 $PINS A1N=n71 Y=n48 A0N=n41 B1=n82 B0=n49 VSS=VSS VDD=VDD 
XU74 AOI22X1 $PINS A0=n42 A1=n72 Y=n47 B0=n51 B1=n76 VSS=VSS VDD=VDD 
XU75 AOI222XL $PINS VSS=VSS VDD=VDD A1=n77 A0=n81 C0=n63 C1=n80 Y=n44 B1=n82 
+ B0=n45 
XU76 AOI222XL $PINS VSS=VSS VDD=VDD A1=n74 A0=n75 C0=n72 C1=n73 Y=n43 B1=n76 
+ B0=n46 
XU79 INVX1 $PINS Y=n69 VSS=VSS A=n30 VDD=VDD 
XU80 OAI33XL $PINS VSS=VSS VDD=VDD A2=n31 A1=IN1 A0=n82 Y=n30 B0=n76 B1=IN0 
+ B2=n32 
XU81 NOR3X1 $PINS Y=n24 VSS=VSS A=n83 B=IN0 C=n73 VDD=VDD 
XU83 NAND4BX1 $PINS Y=n68 VSS=VSS C=n3 AN=n59 B=n61 D=rst VDD=VDD 
XU84 NAND3BX1 $PINS Y=n59 VSS=VSS AN=cnt[16] B=n1 C=n4 VDD=VDD 
XU85 NOR2BX1 $PINS Y=N47 VSS=VSS AN=N24 B=n15 VDD=VDD 
XU87 NAND3BX1 $PINS Y=n66 VSS=VSS AN=n5 B=cnt[5] C=cnt[15] VDD=VDD 
XU88 NAND3BX1 $PINS Y=n67 VSS=VSS AN=n8 B=cnt[18] C=n62 VDD=VDD 
XU89 AO21X1 $PINS A0=rst A1=n15 Y=n64 B0=n60 VSS=VSS VDD=VDD 
XU91 NAND3BX1 $PINS Y=n18 VSS=VSS AN=cnt[18] B=n61 C=n2 VDD=VDD 
XU92 NAND4BX1 $PINS Y=n17 VSS=VSS C=cnt[16] AN=n16 B=cnt[10] D=cnt[13] VDD=VDD 
XU93 NAND3BX1 $PINS Y=n16 VSS=VSS AN=n8 B=cnt[19] C=n62 VDD=VDD 
XU94 NAND4X1 $PINS Y=n8 VSS=VSS C=n10 A=cnt[6] B=n9 D=n11 VDD=VDD 
XU96 NOR3X1 $PINS Y=n61 VSS=VSS A=cnt[14] B=cnt[1] C=cnt[17] VDD=VDD 
XU97 NOR3X1 $PINS Y=n62 VSS=VSS A=cnt[2] B=cnt[4] C=cnt[3] VDD=VDD 
XU99 INVX1 $PINS Y=n60 VSS=VSS A=clkout VDD=VDD 
Xclkout_reg DFFQX1 $PINS Q=clkout VSS=VSS D=n65 CK=clk VDD=VDD 
Xcnt_reg_18_ DFFRX1 $PINS VSS=VSS RN=rst Q=cnt[18] VDD=VDD D=N46 CK=clk 
Xcnt_reg_16_ DFFRX1 $PINS VSS=VSS RN=rst Q=cnt[16] VDD=VDD D=N44 CK=clk 
Xcnt_reg_19_ DFFRX1 $PINS VSS=VSS RN=rst Q=cnt[19] VDD=VDD QN=n3 D=N47 CK=clk 
Xcnt_reg_17_ DFFRX1 $PINS VSS=VSS RN=rst Q=cnt[17] VDD=VDD D=N45 CK=clk 
Xcnt_reg_14_ DFFRX1 $PINS VSS=VSS RN=rst Q=cnt[14] VDD=VDD D=N42 CK=clk 
Xcnt_reg_15_ DFFRX1 $PINS VSS=VSS RN=rst Q=cnt[15] VDD=VDD QN=n2 D=N43 
+ CK=clk_cts_1 
Xcnt_reg_12_ DFFRX1 $PINS VSS=VSS RN=rst Q=cnt[12] VDD=VDD QN=n5 D=N40 
+ CK=clk_cts_1 
Xcnt_reg_13_ DFFRX1 $PINS VSS=VSS RN=rst Q=cnt[13] VDD=VDD QN=n1 D=N41 
+ CK=clk_cts_1 
Xcnt_reg_6_ DFFRX1 $PINS VSS=VSS RN=rst Q=cnt[6] VDD=VDD D=N34 CK=clk_cts_1 
Xcnt_reg_11_ DFFRX1 $PINS VSS=VSS RN=rst Q=cnt[11] VDD=VDD QN=n10 D=N39 
+ CK=clk_cts_1 
Xcnt_reg_5_ DFFRX1 $PINS VSS=VSS RN=rst Q=cnt[5] VDD=VDD D=N33 CK=clk_cts_1 
Xcnt_reg_8_ DFFRX1 $PINS VSS=VSS RN=IN2 Q=cnt[8] VDD=VDD D=N36 CK=clk_cts_1 
Xcnt_reg_7_ DFFRX1 $PINS VSS=VSS RN=IN2 Q=cnt[7] VDD=VDD D=N35 CK=clk_cts_1 
Xcnt_reg_9_ DFFRX1 $PINS VSS=VSS RN=IN2 Q=cnt[9] VDD=VDD D=N37 CK=clk_cts_1 
Xcnt_reg_10_ DFFRX1 $PINS VSS=VSS RN=rst Q=cnt[10] VDD=VDD QN=n4 D=N38 
+ CK=clk_cts_1 
Xcnt_reg_3_ DFFRX1 $PINS VSS=VSS RN=IN2 Q=cnt[3] VDD=VDD D=N31 CK=clk_cts_1 
Xcnt_reg_1_ DFFRX1 $PINS VSS=VSS RN=rst Q=cnt[1] VDD=VDD D=N29 CK=clk_cts_1 
Xcnt_reg_4_ DFFRX1 $PINS VSS=VSS RN=IN2 Q=cnt[4] VDD=VDD D=N32 CK=clk_cts_1 
Xcnt_reg_2_ DFFRX1 $PINS VSS=VSS RN=rst Q=cnt[2] VDD=VDD D=N30 CK=clk_cts_1 
Xcnt_reg_0_ DFFRX1 $PINS VSS=VSS RN=rst Q=cnt[0] VDD=VDD QN=n11 D=N28 
+ CK=clk_cts_1 
Xscan_cnt_reg DFFRX1 $PINS VSS=VSS RN=rst Q=sel[1] VDD=VDD QN=sel[0] D=IN1 
+ CK=clkout 
XU6 OAI221X1 $PINS A0=IN0 A1=n33 C0=n35 Y=data_out[4] B1=n34 B0=IN1 VSS=VSS 
+ VDD=VDD 
XU9 NOR2X1 $PINS Y=n26 VSS=VSS A=n72 B=IN0 VDD=VDD 
XU12 NOR2X1 $PINS Y=n42 VSS=VSS A=n76 B=n84 VDD=VDD 
XU14 NOR2X1 $PINS Y=n32 VSS=VSS A=n74 B=n84 VDD=VDD 
XU15 OAI2BB2XL $PINS A1N=n42 A0N=n74 Y=n57 B1=n76 B0=n72 VSS=VSS VDD=VDD 
XU16 OR2X1 $PINS Y=n46 VSS=VSS A=n72 B=n73 VDD=VDD 
XU19 INVX1 $PINS Y=n70 VSS=VSS A=n26 VDD=VDD 
XU20 AOI221XL $PINS A0=n74 A1=n76 C0=n42 Y=n38 B1=n84 B0=n83 VSS=VSS VDD=VDD 
XU22 NAND2X1 $PINS Y=n41 VSS=VSS B=n80 A=n81 VDD=VDD 
XU23 AOI222XL $PINS VSS=VSS VDD=VDD A1=n72 A0=n24 C0=n22 C1=n40 Y=n39 B1=n63 
+ B0=n25 
XU25 NAND2X1 $PINS Y=n51 VSS=VSS B=n52 A=n83 VDD=VDD 
XU26 XOR2X1 $PINS Y=n52 VSS=VSS A=n84 B=n72 VDD=VDD 
.ENDS

.SUBCKT aes_sbox new_sboxw[31] new_sboxw[30] new_sboxw[29] new_sboxw[28] 
+ new_sboxw[27] new_sboxw[26] new_sboxw[25] new_sboxw[24] new_sboxw[23] 
+ new_sboxw[22] new_sboxw[21] new_sboxw[20] new_sboxw[19] new_sboxw[18] 
+ new_sboxw[17] new_sboxw[16] new_sboxw[15] new_sboxw[14] new_sboxw[13] 
+ new_sboxw[12] new_sboxw[11] new_sboxw[10] new_sboxw[9] new_sboxw[8] 
+ new_sboxw[7] new_sboxw[6] new_sboxw[5] new_sboxw[4] new_sboxw[3] new_sboxw[2] 
+ new_sboxw[1] new_sboxw[0] sboxw[31] sboxw[30] sboxw[29] sboxw[28] sboxw[27] 
+ sboxw[26] sboxw[25] sboxw[24] sboxw[23] sboxw[22] sboxw[21] sboxw[20] 
+ sboxw[19] sboxw[18] sboxw[17] sboxw[16] sboxw[15] sboxw[14] sboxw[13] 
+ sboxw[12] sboxw[11] sboxw[10] sboxw[9] sboxw[8] sboxw[7] sboxw[6] sboxw[5] 
+ sboxw[4] sboxw[3] sboxw[2] sboxw[1] sboxw[0] VSS VDD 
XU1368 OAI31XL $PINS A2=n47 A1=n32 A0=n975 Y=n1157 B0=n1158 VSS=VSS VDD=VDD 
XU1250 OAI221XL $PINS A0=n924 A1=n47 C0=n927 Y=n923 B1=n926 B0=n925 VSS=VSS 
+ VDD=VDD 
XU1049 OAI22XL $PINS A1=n1000 A0=n47 Y=n1216 B1=n1519 B0=n70 VSS=VSS VDD=VDD 
XU1124 OA21XL $PINS A1=n938 A0=n47 Y=n933 B0=n939 VSS=VSS VDD=VDD 
XU1167 NAND2X2 $PINS Y=n925 VSS=VSS B=n49 A=n46 VDD=VDD 
XU494 NAND2X2 $PINS Y=n267 VSS=VSS B=n238 A=n334 VDD=VDD 
XU216 INVX2 $PINS Y=n94 VSS=VSS A=n925 VDD=VDD 
XU284 INVX2 $PINS Y=n121 VSS=VSS A=n267 VDD=VDD 
XU247 INVX2 $PINS Y=n111 VSS=VSS A=n15 VDD=VDD 
XU19 CLKBUFX2 $PINS Y=n21 VSS=VSS A=sboxw[2] VDD=VDD 
XU89 CLKBUFX2 $PINS Y=n38 VSS=VSS A=sboxw[26] VDD=VDD 
XU1 CLKBUFX2 $PINS Y=n2 VSS=VSS A=sboxw[10] VDD=VDD 
XU91 CLKBUFX2 $PINS Y=n40 VSS=VSS A=sboxw[18] VDD=VDD 
XU90 INVX3 $PINS Y=n39 VSS=VSS A=n38 VDD=VDD 
XU29 CLKBUFX2 $PINS Y=n27 VSS=VSS A=sboxw[1] VDD=VDD 
XU93 INVX3 $PINS Y=n41 VSS=VSS A=n40 VDD=VDD 
XU122 INVX1 $PINS Y=n55 VSS=VSS A=sboxw[12] VDD=VDD 
XU21 INVX3 $PINS Y=n24 VSS=VSS A=n21 VDD=VDD 
XU28 INVX1 $PINS Y=n26 VSS=VSS A=sboxw[4] VDD=VDD 
XU3 INVX3 $PINS Y=n3 VSS=VSS A=n2 VDD=VDD 
XU34 INVX1 $PINS Y=n29 VSS=VSS A=sboxw[3] VDD=VDD 
XU130 CLKBUFX2 $PINS Y=n58 VSS=VSS A=sboxw[9] VDD=VDD 
XU101 CLKBUFX2 $PINS Y=n42 VSS=VSS A=sboxw[24] VDD=VDD 
XU123 CLKBUFX2 $PINS Y=n56 VSS=VSS A=sboxw[8] VDD=VDD 
XU16 CLKBUFX2 $PINS Y=n19 VSS=VSS A=sboxw[0] VDD=VDD 
XU103 CLKBUFX2 $PINS Y=n44 VSS=VSS A=sboxw[25] VDD=VDD 
XU107 CLKBUFX2 $PINS Y=n48 VSS=VSS A=sboxw[17] VDD=VDD 
XU105 CLKBUFX2 $PINS Y=n46 VSS=VSS A=sboxw[16] VDD=VDD 
XU33 INVX2 $PINS Y=n28 VSS=VSS A=n27 VDD=VDD 
XU75 INVX1 $PINS Y=n36 VSS=VSS A=sboxw[28] VDD=VDD 
XU76 INVX1 $PINS Y=n37 VSS=VSS A=sboxw[27] VDD=VDD 
XU121 INVX1 $PINS Y=n54 VSS=VSS A=sboxw[11] VDD=VDD 
XU71 INVX1 $PINS Y=n33 VSS=VSS A=sboxw[19] VDD=VDD 
XU55 INVX1 $PINS Y=n32 VSS=VSS A=sboxw[20] VDD=VDD 
XU131 INVX2 $PINS Y=n59 VSS=VSS A=n58 VDD=VDD 
XU129 INVX2 $PINS Y=n57 VSS=VSS A=n56 VDD=VDD 
XU108 INVX2 $PINS Y=n49 VSS=VSS A=n48 VDD=VDD 
XU104 INVX3 $PINS Y=n45 VSS=VSS A=n44 VDD=VDD 
XU17 INVX3 $PINS Y=n20 VSS=VSS A=n19 VDD=VDD 
XU102 INVX3 $PINS Y=n43 VSS=VSS A=n42 VDD=VDD 
XU176 INVX1 $PINS Y=n78 VSS=VSS A=n261 VDD=VDD 
XU106 INVX3 $PINS Y=n47 VSS=VSS A=n46 VDD=VDD 
XU160 INVX1 $PINS Y=n72 VSS=VSS A=n419 VDD=VDD 
XU145 INVX1 $PINS Y=n65 VSS=VSS A=n494 VDD=VDD 
XU7 CLKBUFX2 $PINS Y=n13 VSS=VSS A=sboxw[13] VDD=VDD 
XU893 AND2XL $PINS Y=n9 VSS=VSS B=n54 A=sboxw[12] VDD=VDD 
XU926 AND2XL $PINS Y=n8 VSS=VSS B=sboxw[3] A=sboxw[4] VDD=VDD 
XU154 INVX1 $PINS Y=n71 VSS=VSS A=n645 VDD=VDD 
XU144 INVX1 $PINS Y=n64 VSS=VSS A=n996 VDD=VDD 
XU143 INVX1 $PINS Y=n63 VSS=VSS A=n951 VDD=VDD 
XU138 INVX1 $PINS Y=n61 VSS=VSS A=n18 VDD=VDD 
XU180 INVX1 $PINS Y=n81 VSS=VSS A=n1040 VDD=VDD 
XU191 INVX1 $PINS Y=n90 VSS=VSS A=n1071 VDD=VDD 
XU179 INVX1 $PINS Y=n80 VSS=VSS A=n721 VDD=VDD 
XU182 INVX1 $PINS Y=n82 VSS=VSS A=n288 VDD=VDD 
XU185 INVX1 $PINS Y=n84 VSS=VSS A=n752 VDD=VDD 
XU183 INVX1 $PINS Y=n83 VSS=VSS A=n463 VDD=VDD 
XU139 INVX1 $PINS Y=n62 VSS=VSS A=n600 VDD=VDD 
XU73 INVX2 $PINS Y=n34 VSS=VSS A=sboxw[21] VDD=VDD 
XU23 INVX2 $PINS Y=n25 VSS=VSS A=sboxw[5] VDD=VDD 
XU8 INVX2 $PINS Y=n16 VSS=VSS A=n13 VDD=VDD 
XU74 INVX2 $PINS Y=n35 VSS=VSS A=sboxw[29] VDD=VDD 
XU187 INVX2 $PINS Y=n86 VSS=VSS A=n238 VDD=VDD 
XU186 INVX2 $PINS Y=n85 VSS=VSS A=n334 VDD=VDD 
XU1587 AND2X2 $PINS Y=n15 VSS=VSS B=n359 A=n358 VDD=VDD 
XU18 AND2X1 $PINS Y=n1 VSS=VSS B=n936 A=n935 VDD=VDD 
XU223 INVX1 $PINS Y=n98 VSS=VSS A=n431 VDD=VDD 
XU188 INVX1 $PINS Y=n87 VSS=VSS A=n243 VDD=VDD 
XU174 INVX1 $PINS Y=n77 VSS=VSS A=n7 VDD=VDD 
XU147 INVX1 $PINS Y=n66 VSS=VSS A=n287 VDD=VDD 
XU294 INVX1 $PINS Y=n127 VSS=VSS A=n402 VDD=VDD 
XU397 INVX1 $PINS Y=n139 VSS=VSS A=n251 VDD=VDD 
XU193 INVX2 $PINS Y=n92 VSS=VSS A=n1018 VDD=VDD 
XU168 INVX2 $PINS Y=n74 VSS=VSS A=n441 VDD=VDD 
XU192 INVX2 $PINS Y=n91 VSS=VSS A=n667 VDD=VDD 
XU315 INVX2 $PINS Y=n132 VSS=VSS A=n1 VDD=VDD 
XU178 INVX2 $PINS Y=n79 VSS=VSS A=n358 VDD=VDD 
XU224 INVX2 $PINS Y=n99 VSS=VSS A=n584 VDD=VDD 
XU228 INVX2 $PINS Y=n100 VSS=VSS A=n935 VDD=VDD 
XU499 AND2X2 $PINS Y=n6 VSS=VSS B=n16 A=n3 VDD=VDD 
XU221 INVX1 $PINS Y=n97 VSS=VSS A=n244 VDD=VDD 
XU81 OAI22XL $PINS A1=n46 A0=n40 Y=n1033 B1=n925 B0=n41 VSS=VSS VDD=VDD 
XU194 CLKINVX2 $PINS Y=n93 VSS=VSS A=n574 VDD=VDD 
XU233 INVX1 $PINS Y=n102 VSS=VSS A=n283 VDD=VDD 
XU217 INVX1 $PINS Y=n95 VSS=VSS A=n622 VDD=VDD 
XU250 INVX1 $PINS Y=n114 VSS=VSS A=n1072 VDD=VDD 
XU319 INVX1 $PINS Y=n136 VSS=VSS A=n578 VDD=VDD 
XU316 INVX1 $PINS Y=n133 VSS=VSS A=n284 VDD=VDD 
XU251 INVX1 $PINS Y=n115 VSS=VSS A=n973 VDD=VDD 
XU282 INVX1 $PINS Y=n119 VSS=VSS A=n495 VDD=VDD 
XU255 INVX1 $PINS Y=n117 VSS=VSS A=n1008 VDD=VDD 
XU314 INVX1 $PINS Y=n131 VSS=VSS A=n979 VDD=VDD 
XU161 INVX1 $PINS Y=n73 VSS=VSS A=n396 VDD=VDD 
XU252 INVX1 $PINS Y=n116 VSS=VSS A=n657 VDD=VDD 
XU249 INVX1 $PINS Y=n113 VSS=VSS A=n945 VDD=VDD 
XU318 INVX1 $PINS Y=n135 VSS=VSS A=n753 VDD=VDD 
XU256 INVX1 $PINS Y=n118 VSS=VSS A=n368 VDD=VDD 
XU396 INVX1 $PINS Y=n138 VSS=VSS A=n628 VDD=VDD 
XU248 INVX1 $PINS Y=n112 VSS=VSS A=n594 VDD=VDD 
XU27 NAND2X1 $PINS Y=n1326 VSS=VSS B=n55 A=n1583 VDD=VDD 
XU32 NAND2X1 $PINS Y=n1281 VSS=VSS B=n139 A=n85 VDD=VDD 
XU41 NAND2X1 $PINS Y=n1356 VSS=VSS B=n77 A=n86 VDD=VDD 
XU66 AO21X1 $PINS A0=n133 A1=n58 Y=n1280 B0=n1283 VSS=VSS VDD=VDD 
XU189 INVX2 $PINS Y=n88 VSS=VSS A=n10 VDD=VDD 
XU170 INVX2 $PINS Y=n75 VSS=VSS A=n359 VDD=VDD 
XU152 INVX2 $PINS Y=n69 VSS=VSS A=n585 VDD=VDD 
XU153 INVX2 $PINS Y=n70 VSS=VSS A=n936 VDD=VDD 
XU543 OAI22XL $PINS A1=n495 A0=n74 Y=n415 B1=n442 B0=n61 VSS=VSS VDD=VDD 
XU65 OAI22XL $PINS A1=n238 A0=n287 Y=n328 B1=n284 B0=n58 VSS=VSS VDD=VDD 
XU190 INVX3 $PINS Y=n89 VSS=VSS A=n4 VDD=VDD 
XU236 INVX1 $PINS Y=n104 VSS=VSS A=n629 VDD=VDD 
XU229 INVX1 $PINS Y=n101 VSS=VSS A=n1059 VDD=VDD 
XU283 INVX1 $PINS Y=n120 VSS=VSS A=n740 VDD=VDD 
XU4 INVX1 $PINS Y=n12 VSS=VSS A=sboxw[14] VDD=VDD 
XU242 INVX1 $PINS Y=n106 VSS=VSS A=n376 VDD=VDD 
XU246 INVX1 $PINS Y=n110 VSS=VSS A=n602 VDD=VDD 
XU243 INVX1 $PINS Y=n107 VSS=VSS A=n403 VDD=VDD 
XU288 INVX1 $PINS Y=n122 VSS=VSS A=n482 VDD=VDD 
XU317 INVX1 $PINS Y=n134 VSS=VSS A=n953 VDD=VDD 
XU395 INVX1 $PINS Y=n137 VSS=VSS A=n316 VDD=VDD 
XU292 INVX1 $PINS Y=n125 VSS=VSS A=n980 VDD=VDD 
XU311 INVX1 $PINS Y=n129 VSS=VSS A=n649 VDD=VDD 
XU313 INVX1 $PINS Y=n130 VSS=VSS A=n1000 VDD=VDD 
XU295 INVX1 $PINS Y=n128 VSS=VSS A=n349 VDD=VDD 
XU290 INVX1 $PINS Y=n124 VSS=VSS A=n926 VDD=VDD 
XU245 INVX1 $PINS Y=n109 VSS=VSS A=n252 VDD=VDD 
XU289 INVX1 $PINS Y=n123 VSS=VSS A=n575 VDD=VDD 
XU148 INVX1 $PINS Y=n67 VSS=VSS A=n6 VDD=VDD 
XU237 INVX1 $PINS Y=n105 VSS=VSS A=n423 VDD=VDD 
XU1683 OAI31XL $PINS A2=n21 A1=sboxw[4] A0=n61 Y=n417 B0=n418 VSS=VSS VDD=VDD 
XU1280 OAI21XL $PINS A1=n116 A0=n138 Y=n644 B0=n43 VSS=VSS VDD=VDD 
XU363 OAI21XL $PINS A1=n97 A0=n102 Y=n1324 B0=n57 VSS=VSS VDD=VDD 
XU173 INVX1 $PINS Y=n76 VSS=VSS A=n275 VDD=VDD 
XU42 NAND2X1 $PINS Y=n245 VSS=VSS B=n16 A=n139 VDD=VDD 
XU39 NAND2X1 $PINS Y=n1389 VSS=VSS B=n86 A=n97 VDD=VDD 
XU60 NAND2X1 $PINS Y=n305 VSS=VSS B=n55 A=n2 VDD=VDD 
XU653 OA21XL $PINS A1=n945 A0=n70 Y=n978 B0=n949 VSS=VSS VDD=VDD 
XU652 OA21XL $PINS A1=n594 A0=n69 Y=n627 B0=n598 VSS=VSS VDD=VDD 
XU1345 AND2XL $PINS Y=n596 VSS=VSS B=n598 A=n597 VDD=VDD 
XU437 OA21XL $PINS A1=n67 A0=n55 Y=n1277 B0=n245 VSS=VSS VDD=VDD 
XU372 OA21XL $PINS A1=n368 A0=n75 Y=n401 B0=n372 VSS=VSS VDD=VDD 
XU959 AND2XL $PINS Y=n370 VSS=VSS B=n372 A=n371 VDD=VDD 
XU1347 AND2XL $PINS Y=n947 VSS=VSS B=n949 A=n948 VDD=VDD 
XU906 OAI22XL $PINS A1=n441 A0=n17 Y=n440 B1=n368 B0=n27 VSS=VSS VDD=VDD 
XU883 OAI22XL $PINS A1=n59 A0=n3 Y=n1342 B1=n334 B0=n2 VSS=VSS VDD=VDD 
XU576 OAI22XL $PINS A1=n753 A0=n91 Y=n641 B1=n668 B0=n574 VSS=VSS VDD=VDD 
XU882 OAI22XL $PINS A1=n2 A0=n56 Y=n1321 B1=n334 B0=n3 VSS=VSS VDD=VDD 
XU582 OAI22XL $PINS A1=n251 A0=n86 Y=n1320 B1=n281 B0=n334 VSS=VSS VDD=VDD 
XU608 OAI22XL $PINS A1=n10 A0=n261 Y=n1323 B1=n4 B0=n284 VSS=VSS VDD=VDD 
XU85 AOI21X1 $PINS A0=n59 A1=n66 Y=n285 B0=n87 VSS=VSS VDD=VDD 
XU1279 OAI31XL $PINS A2=n38 A1=sboxw[28] A0=n574 Y=n643 B0=n644 VSS=VSS VDD=VDD 
XU964 OAI31XL $PINS A2=n1559 A1=n1577 A0=n1280 Y=n1279 B0=n13 VSS=VSS VDD=VDD 
XU333 OAI31XL $PINS A2=n278 A1=n78 A0=n1569 Y=n1367 B0=n76 VSS=VSS VDD=VDD 
XU1281 OAI31XL $PINS A2=n40 A1=sboxw[20] A0=n925 Y=n994 B0=n995 VSS=VSS VDD=VDD 
XU1209 OAI21XL $PINS A1=n112 A0=n104 Y=n815 B0=n578 VSS=VSS VDD=VDD 
XU1272 OAI21XL $PINS A1=n118 A0=n107 Y=n557 B0=n23 VSS=VSS VDD=VDD 
XU1211 OAI21XL $PINS A1=n113 A0=n125 Y=n1164 B0=n132 VSS=VSS VDD=VDD 
XU1239 OAI21XL $PINS A1=n303 A0=n1563 Y=n301 B0=n304 VSS=VSS VDD=VDD 
XU1234 OAI21XL $PINS A1=n424 A0=n19 Y=n477 B0=n396 VSS=VSS VDD=VDD 
XU1088 OAI21XL $PINS A1=n1001 A0=n46 Y=n1054 B0=n973 VSS=VSS VDD=VDD 
XU1085 OAI21XL $PINS A1=n650 A0=n42 Y=n735 B0=n622 VSS=VSS VDD=VDD 
XU941 OAI21XL $PINS A1=n430 A0=n122 Y=n1477 B0=n696 VSS=VSS VDD=VDD 
XU902 OAI21XL $PINS A1=n17 A0=n27 Y=n455 B0=n396 VSS=VSS VDD=VDD 
XU322 OAI21XL $PINS A1=n403 A0=n359 Y=n1483 B0=n453 VSS=VSS VDD=VDD 
XU365 OAI21XL $PINS A1=n419 A0=n18 Y=n476 B0=n478 VSS=VSS VDD=VDD 
XU633 OAI21XL $PINS A1=n656 A0=n120 Y=n894 B0=n836 VSS=VSS VDD=VDD 
XU636 OAI21XL $PINS A1=n1007 A0=n101 Y=n1243 B0=n1185 VSS=VSS VDD=VDD 
XU907 OAI221XL $PINS A0=n358 A1=n442 C0=n443 Y=n439 B1=n423 B0=n19 VSS=VSS 
+ VDD=VDD 
XU1644 NOR2X1 $PINS Y=n560 VSS=VSS A=n376 B=n494 VDD=VDD 
XU57 NOR2X1 $PINS Y=n326 VSS=VSS A=n55 B=n2 VDD=VDD 
XU31 NAND2X1 $PINS Y=n1339 VSS=VSS B=n102 A=n86 VDD=VDD 
XU35 NAND2X1 $PINS Y=n254 VSS=VSS B=n4 A=n133 VDD=VDD 
XU37 NAND2X1 $PINS Y=n1293 VSS=VSS B=n238 A=n97 VDD=VDD 
XU40 NAND2X1 $PINS Y=n246 VSS=VSS B=n57 A=n133 VDD=VDD 
XU49 NAND2X1 $PINS Y=n272 VSS=VSS B=n133 A=n86 VDD=VDD 
XU38 NAND2X1 $PINS Y=n269 VSS=VSS B=n78 A=n76 VDD=VDD 
XU47 NAND2X1 $PINS Y=n336 VSS=VSS B=n238 A=n337 VDD=VDD 
XU1554 NAND3X1 $PINS Y=n1278 VSS=VSS A=n82 B=n4 C=n76 VDD=VDD 
XU68 AOI2BB2X1 $PINS A1N=n267 Y=n1308 A0N=n251 B1=n97 B0=n59 VSS=VSS VDD=VDD 
XU78 AO21X1 $PINS A0=n59 A1=n139 Y=n1343 B0=n257 VSS=VSS VDD=VDD 
XU51 AO22X1 $PINS A0=n54 A1=n334 Y=n1344 B0=n1342 B1=n66 VSS=VSS VDD=VDD 
XU77 AO22X1 $PINS A0=n66 A1=n56 Y=n286 B0=n5 B1=n82 VSS=VSS VDD=VDD 
XU1092 OR4X1 $PINS Y=n483 VSS=VSS A=n466 B=n486 C=n390 D=n472 VDD=VDD 
XU635 NOR4BXL $PINS Y=n1241 VSS=VSS AN=n1242 B=n1243 C=n113 D=n1049 VDD=VDD 
XU719 OR4X1 $PINS Y=n1060 VSS=VSS A=n1043 B=n1063 C=n967 D=n1049 VDD=VDD 
XU632 NOR4BXL $PINS Y=n892 VSS=VSS AN=n893 B=n894 C=n112 D=n730 VDD=VDD 
XU718 OR4X1 $PINS Y=n741 VSS=VSS A=n724 B=n744 C=n616 D=n730 VDD=VDD 
XU1290 OAI22XL $PINS A1=n926 A0=n132 Y=n1170 B1=n980 B0=n70 VSS=VSS VDD=VDD 
XU1286 OAI22XL $PINS A1=n575 A0=n578 Y=n821 B1=n629 B0=n69 VSS=VSS VDD=VDD 
XU1512 OAI22XL $PINS A1=n419 A0=n28 Y=n493 B1=n396 B0=n79 VSS=VSS VDD=VDD 
XU1030 OAI22XL $PINS A1=n43 A0=n600 Y=n884 B1=n721 B0=n69 VSS=VSS VDD=VDD 
XU932 OAI22XL $PINS A1=n413 A0=sboxw[5] Y=n412 B1=n25 B0=n414 VSS=VSS VDD=VDD 
XU943 OAI22XL $PINS A1=n423 A0=n28 Y=n422 B1=n424 B0=n74 VSS=VSS VDD=VDD 
XU1077 OAI22XL $PINS A1=n996 A0=n49 Y=n1070 B1=n973 B0=n100 VSS=VSS VDD=VDD 
XU828 OAI22XL $PINS A1=n359 A0=n396 Y=n543 B1=n495 B0=n19 VSS=VSS VDD=VDD 
XU586 OAI22XL $PINS A1=n251 A0=n121 Y=n1456 B1=n252 B0=n58 VSS=VSS VDD=VDD 
XU797 OAI22XL $PINS A1=n1018 A0=n951 Y=n1017 B1=n945 B0=n48 VSS=VSS VDD=VDD 
XU791 OAI22XL $PINS A1=n667 A0=n600 Y=n666 B1=n594 B0=n44 VSS=VSS VDD=VDD 
XU604 OAI22XL $PINS A1=n61 A0=n17 Y=n516 B1=n442 B0=n359 VSS=VSS VDD=VDD 
XU591 OAI22XL $PINS A1=n423 A0=n79 Y=n511 B1=n512 B0=n75 VSS=VSS VDD=VDD 
XU607 OAI22XL $PINS A1=n334 A0=n287 Y=n1397 B1=n281 B0=n5 VSS=VSS VDD=VDD 
XU630 OAI22XL $PINS A1=n1000 A0=n100 Y=n1088 B1=n1089 B0=n70 VSS=VSS VDD=VDD 
XU629 OAI22XL $PINS A1=n649 A0=n99 Y=n769 B1=n770 B0=n69 VSS=VSS VDD=VDD 
XU524 OAI22XL $PINS A1=n349 A0=n359 Y=n429 B1=n430 B0=n83 VSS=VSS VDD=VDD 
XU355 OAI22XL $PINS A1=n594 A0=n91 Y=n883 B1=n628 B0=n578 VSS=VSS VDD=VDD 
XU356 OAI22XL $PINS A1=n945 A0=n92 Y=n1232 B1=n979 B0=n132 VSS=VSS VDD=VDD 
XU357 OAI22XL $PINS A1=n753 A0=n578 Y=n835 B1=n628 B0=n136 VSS=VSS VDD=VDD 
XU358 OAI22XL $PINS A1=n1072 A0=n132 Y=n1184 B1=n979 B0=n1 VSS=VSS VDD=VDD 
XU114 INVX1 $PINS Y=n51 VSS=VSS A=sboxw[22] VDD=VDD 
XU109 INVX1 $PINS Y=n50 VSS=VSS A=sboxw[30] VDD=VDD 
XU45 INVX1 $PINS Y=n30 VSS=VSS A=sboxw[6] VDD=VDD 
XU1671 OAI31XL $PINS A2=n334 A1=sboxw[12] A0=n1583 Y=n1426 B0=n1368 VSS=VSS 
+ VDD=VDD 
XU1681 OAI31XL $PINS A2=n61 A1=sboxw[4] A0=n1624 Y=n541 B0=n478 VSS=VSS VDD=VDD 
XU1672 OAI31XL $PINS A2=n88 A1=sboxw[12] A0=n1583 Y=n1419 B0=n1408 VSS=VSS 
+ VDD=VDD 
XU1686 OAI31XL $PINS A2=n267 A1=sboxw[11] A0=n295 Y=n1274 B0=n1278 VSS=VSS 
+ VDD=VDD 
XU1233 OAI31XL $PINS A2=n1626 A1=n72 A0=n1615 Y=n474 B0=n96 VSS=VSS VDD=VDD 
XU1249 OAI31XL $PINS A2=n36 A1=n579 A0=n578 Y=n577 B0=n580 VSS=VSS VDD=VDD 
XU1278 OAI31XL $PINS A2=n574 A1=sboxw[28] A0=n1649 Y=n799 B0=n736 VSS=VSS 
+ VDD=VDD 
XU1252 OAI31XL $PINS A2=n32 A1=n930 A0=n132 Y=n928 B0=n931 VSS=VSS VDD=VDD 
XU807 OAI31XL $PINS A2=n353 A1=n79 A0=n26 Y=n707 B0=n445 VSS=VSS VDD=VDD 
XU805 OAI31XL $PINS A2=n3 A1=n77 A0=n4 Y=n1286 B0=n1287 VSS=VSS VDD=VDD 
XU1042 OAI31XL $PINS A2=n925 A1=sboxw[20] A0=n1535 Y=n1148 B0=n1055 VSS=VSS 
+ VDD=VDD 
XU600 OAI31XL $PINS A2=n930 A1=n100 A0=n32 Y=n1196 B0=n1022 VSS=VSS VDD=VDD 
XU449 OAI31XL $PINS A2=n1537 A1=n64 A0=n1525 Y=n1051 B0=n108 VSS=VSS VDD=VDD 
XU448 OAI31XL $PINS A2=n1641 A1=n71 A0=n1632 Y=n732 B0=n68 VSS=VSS VDD=VDD 
XU597 OAI31XL $PINS A2=n579 A1=n99 A0=n36 Y=n847 B0=n671 VSS=VSS VDD=VDD 
XU1665 OAI21XL $PINS A1=n261 A0=n85 Y=n1364 B0=n1368 VSS=VSS VDD=VDD 
XU1706 OAI21XL $PINS A1=n284 A0=n88 Y=n1307 B0=n1282 VSS=VSS VDD=VDD 
XU1569 OAI21XL $PINS A1=n29 A0=n18 Y=n473 B0=n358 VSS=VSS VDD=VDD 
XU1574 OAI21XL $PINS A1=n1327 A0=n56 Y=n1365 B0=n243 VSS=VSS VDD=VDD 
XU1642 OAI21XL $PINS A1=n376 A0=n26 Y=n373 B0=n377 VSS=VSS VDD=VDD 
XU1583 OAI21XL $PINS A1=n4 A0=n283 Y=n1424 B0=n317 VSS=VSS VDD=VDD 
XU1349 OAI21XL $PINS A1=n86 A0=sboxw[12] Y=n1346 B0=sboxw[11] VSS=VSS VDD=VDD 
XU950 OAI21XL $PINS A1=n316 A0=n86 Y=n1366 B0=n1367 VSS=VSS VDD=VDD 
XU1203 OAI21XL $PINS A1=n403 A0=n74 Y=n692 B0=n445 VSS=VSS VDD=VDD 
XU1352 OAI21XL $PINS A1=n91 A0=sboxw[28] Y=n677 B0=sboxw[27] VSS=VSS VDD=VDD 
XU1353 OAI21XL $PINS A1=n92 A0=sboxw[20] Y=n1028 B0=sboxw[19] VSS=VSS VDD=VDD 
XU911 OAI21XL $PINS A1=n1626 A0=n1614 Y=n446 B0=n96 VSS=VSS VDD=VDD 
XU777 OAI21XL $PINS A1=n54 A0=n85 Y=n1369 B0=n4 VSS=VSS VDD=VDD 
XU578 OAI21XL $PINS A1=n600 A0=n44 Y=n681 B0=n622 VSS=VSS VDD=VDD 
XU596 OAI21XL $PINS A1=n753 A0=n578 Y=n846 B0=n627 VSS=VSS VDD=VDD 
XU601 OAI21XL $PINS A1=n1072 A0=n132 Y=n1195 B0=n978 VSS=VSS VDD=VDD 
XU617 OAI21XL $PINS A1=n37 A0=n93 Y=n731 B0=n584 VSS=VSS VDD=VDD 
XU461 OAI21XL $PINS A1=n602 A0=n36 Y=n599 B0=n603 VSS=VSS VDD=VDD 
XU386 OAI21XL $PINS A1=n495 A0=n111 Y=n706 B0=n401 VSS=VSS VDD=VDD 
XU462 OAI21XL $PINS A1=n953 A0=n32 Y=n950 B0=n954 VSS=VSS VDD=VDD 
XU177 OAI21XL $PINS A1=n423 A0=n75 Y=n1490 B0=n427 VSS=VSS VDD=VDD 
XU200 OAI21XL $PINS A1=n649 A0=n69 Y=n907 B0=n653 VSS=VSS VDD=VDD 
XU302 OAI21XL $PINS A1=n122 A0=n74 Y=n1498 B0=n359 VSS=VSS VDD=VDD 
XU335 OAI21XL $PINS A1=n282 A0=n57 Y=n1291 B0=n1293 VSS=VSS VDD=VDD 
XU201 OAI21XL $PINS A1=n1000 A0=n70 Y=n1256 B0=n1004 VSS=VSS VDD=VDD 
XU128 OAI21XL $PINS A1=n980 A0=n92 Y=n1181 B0=n1022 VSS=VSS VDD=VDD 
XU127 OAI21XL $PINS A1=n629 A0=n91 Y=n832 B0=n671 VSS=VSS VDD=VDD 
XU53 OAI21XL $PINS A1=n951 A0=n48 Y=n1032 B0=n973 VSS=VSS VDD=VDD 
XU1693 OAI221XL $PINS A0=n74 A1=n403 C0=n485 Y=n484 B1=n349 B0=n28 VSS=VSS 
+ VDD=VDD 
XU1575 OAI221XL $PINS A0=n86 A1=n252 C0=n1454 Y=n1452 B1=n243 B0=n58 VSS=VSS 
+ VDD=VDD 
XU1327 OAI221XL $PINS A0=n93 A1=n628 C0=n908 Y=n906 B1=n753 B0=n43 VSS=VSS 
+ VDD=VDD 
XU1591 OAI221XL $PINS A0=n59 A1=n316 C0=n272 Y=n1374 B1=n252 B0=n86 VSS=VSS 
+ VDD=VDD 
XU1207 OAI221XL $PINS A0=n92 A1=n980 C0=n1062 Y=n1061 B1=n926 B0=n49 VSS=VSS 
+ VDD=VDD 
XU968 OAI221XL $PINS A0=n88 A1=n269 C0=n1279 Y=n1273 B1=n252 B0=n59 VSS=VSS 
+ VDD=VDD 
XU983 OAI221XL $PINS A0=n88 A1=n244 C0=n246 Y=n1405 B1=n243 B0=n238 VSS=VSS 
+ VDD=VDD 
XU1002 OAI221XL $PINS A0=n1653 A1=n574 C0=n836 Y=n834 B1=n629 B0=n44 VSS=VSS 
+ VDD=VDD 
XU994 OAI221XL $PINS A0=n4 A1=n281 C0=n1336 Y=n1335 B1=n249 B0=n56 VSS=VSS 
+ VDD=VDD 
XU795 OAI221XL $PINS A0=n1610 A1=n61 C0=n696 Y=n694 B1=n403 B0=n27 VSS=VSS 
+ VDD=VDD 
XU1006 OAI221XL $PINS A0=n1519 A1=n925 C0=n1185 Y=n1183 B1=n980 B0=n48 VSS=VSS 
+ VDD=VDD 
XU768 OAI221XL $PINS A0=n85 A1=n258 C0=n1567 Y=n324 B1=n251 B0=n57 VSS=VSS 
+ VDD=VDD 
XU792 OAI221XL $PINS A0=n584 A1=n668 C0=n669 Y=n665 B1=n649 B0=n42 VSS=VSS 
+ VDD=VDD 
XU587 OAI221XL $PINS A0=n250 A1=n334 C0=n304 Y=n1455 B1=n267 B0=n283 VSS=VSS 
+ VDD=VDD 
XU729 OAI221XL $PINS A0=n132 A1=n926 C0=n1182 Y=n1180 B1=n973 B0=n48 VSS=VSS 
+ VDD=VDD 
XU728 OAI221XL $PINS A0=n578 A1=n575 C0=n833 Y=n831 B1=n622 B0=n44 VSS=VSS 
+ VDD=VDD 
XU798 OAI221XL $PINS A0=n935 A1=n1019 C0=n1020 Y=n1016 B1=n1000 B0=n46 VSS=VSS 
+ VDD=VDD 
XU378 OAI221XL $PINS A0=n89 A1=n252 C0=n237 Y=n1290 B1=n243 B0=n88 VSS=VSS 
+ VDD=VDD 
XU518 OAI221XL $PINS A0=n75 A1=n495 C0=n513 Y=n1497 B1=n368 B0=n74 VSS=VSS 
+ VDD=VDD 
XU10 OAI221XL $PINS A0=n85 A1=n1289 C0=n254 Y=n1439 B1=n283 B0=n86 VSS=VSS 
+ VDD=VDD 
XU402 OAI221XL $PINS A0=n70 A1=n1072 C0=n1090 Y=n1263 B1=n945 B0=n92 VSS=VSS 
+ VDD=VDD 
XU411 OAI221XL $PINS A0=n69 A1=n753 C0=n771 Y=n914 B1=n594 B0=n91 VSS=VSS 
+ VDD=VDD 
XU1565 NOR2X1 $PINS Y=n1347 VSS=VSS A=n281 B=n57 VDD=VDD 
XU52 NOR2X1 $PINS Y=n240 VSS=VSS A=n275 B=n287 VDD=VDD 
XU67 NOR2X1 $PINS Y=n1292 VSS=VSS A=n251 B=n59 VDD=VDD 
XU84 NOR2X1 $PINS Y=n1298 VSS=VSS A=n261 B=n58 VDD=VDD 
XU36 NAND2X1 $PINS Y=n1359 VSS=VSS B=n252 A=n251 VDD=VDD 
XU1643 NAND2X1 $PINS Y=n701 VSS=VSS B=n27 A=n560 VDD=VDD 
XU1564 NAND2X1 $PINS Y=n1467 VSS=VSS B=n281 A=n288 VDD=VDD 
XU79 OAI211X1 $PINS A1=n267 A0=n251 C0=n273 Y=n271 B0=n272 VSS=VSS VDD=VDD 
XU1667 OAI211X1 $PINS A1=n4 A0=sboxw[12] C0=n235 Y=n1404 B0=n261 VSS=VSS 
+ VDD=VDD 
XU1631 AOI2BB2X1 $PINS A1N=n402 Y=n1496 A0N=n61 B1=n25 B0=n1497 VSS=VSS VDD=VDD 
XU69 AOI2BB1X1 $PINS A1N=n288 Y=n1393 A0N=n88 B0=n1298 VSS=VSS VDD=VDD 
XU1677 OA21XL $PINS A1=n359 A0=n494 Y=n491 B0=n400 VSS=VSS VDD=VDD 
XU1121 OA21XL $PINS A1=n587 A0=n43 Y=n582 B0=n588 VSS=VSS VDD=VDD 
XU1193 OA21XL $PINS A1=n5 A0=n7 Y=n1378 B0=n1308 VSS=VSS VDD=VDD 
XU1076 OA21XL $PINS A1=n936 A0=n1071 Y=n1068 B0=n977 VSS=VSS VDD=VDD 
XU1072 OA21XL $PINS A1=n585 A0=n752 Y=n749 B0=n626 VSS=VSS VDD=VDD 